#======================================================================

# CRYSTAL DATA

#----------------------------------------------------------------------

data_VESTA_phase_1


_chemical_name_common                  'generated by VMD'
_cell_length_a                         22.94038
_cell_length_b                         22.94038
_cell_length_c                         22.94038
_cell_angle_alpha                      90
_cell_angle_beta                       90
_cell_angle_gamma                      90
_space_group_name_H-M_alt              'Custom'
_space_group_IT_number                 1

loop_
_space_group_symop_operation_xyz
   'x, y, z'

loop_
   _atom_site_label
   _atom_site_occupancy
   _atom_site_fract_x
   _atom_site_fract_y
   _atom_site_fract_z
   _atom_site_adp_type
   _atom_site_B_iso_or_equiv
   _atom_site_type_symbol
   Au1        1.0     0.366665      0.455557      0.100000     Biso  1.000000 Au
   Au2        1.0     0.455557      0.366665      0.100000     Biso  1.000000 Au
   Au3        1.0     0.544443      0.455557      0.100000     Biso  1.000000 Au
   Au4        1.0     0.455557      0.544443      0.100000     Biso  1.000000 Au
   Au5        1.0     0.544443      0.633335      0.100000     Biso  1.000000 Au
   Au6        1.0     0.633335      0.544443      0.100000     Biso  1.000000 Au
   Au7        1.0     0.366665      0.277778      0.277778     Biso  1.000000 Au
   Au8        1.0     0.455557      0.188887      0.277778     Biso  1.000000 Au
   Au9        1.0     0.455557      0.277778      0.188887     Biso  1.000000 Au
   Au10       1.0     0.544443      0.277778      0.277778     Biso  1.000000 Au
   Au11       1.0     0.633335      0.188887      0.277778     Biso  1.000000 Au
   Au12       1.0     0.633335      0.277778      0.188887     Biso  1.000000 Au
   Au13       1.0     0.722222      0.277778      0.277778     Biso  1.000000 Au
   Au14       1.0     0.188887      0.455557      0.277778     Biso  1.000000 Au
   Au15       1.0     0.277778      0.366665      0.277778     Biso  1.000000 Au
   Au16       1.0     0.277778      0.455557      0.188887     Biso  1.000000 Au
   Au17       1.0     0.366665      0.366665      0.188887     Biso  1.000000 Au
   Au18       1.0     0.366665      0.455557      0.277778     Biso  1.000000 Au
   Au19       1.0     0.455557      0.366665      0.277778     Biso  1.000000 Au
   Au20       1.0     0.455557      0.455557      0.188887     Biso  1.000000 Au
   Au21       1.0     0.544443      0.366665      0.188887     Biso  1.000000 Au
   Au22       1.0     0.544443      0.455557      0.277778     Biso  1.000000 Au
   Au23       1.0     0.633335      0.366665      0.277778     Biso  1.000000 Au
   Au24       1.0     0.633335      0.455557      0.188887     Biso  1.000000 Au
   Au25       1.0     0.722222      0.366665      0.188887     Biso  1.000000 Au
   Au26       1.0     0.722222      0.455557      0.277778     Biso  1.000000 Au
   Au27       1.0     0.811109      0.366665      0.277778     Biso  1.000000 Au
   Au28       1.0     0.188887      0.633335      0.277778     Biso  1.000000 Au
   Au29       1.0     0.277778      0.544443      0.277778     Biso  1.000000 Au
   Au30       1.0     0.277778      0.633335      0.188887     Biso  1.000000 Au
   Au31       1.0     0.366665      0.544443      0.188887     Biso  1.000000 Au
   Au32       1.0     0.366665      0.633335      0.277778     Biso  1.000000 Au
   Au33       1.0     0.455557      0.544443      0.277778     Biso  1.000000 Au
   Au34       1.0     0.455557      0.633335      0.188887     Biso  1.000000 Au
   Au35       1.0     0.544443      0.544443      0.188887     Biso  1.000000 Au
   Au36       1.0     0.544443      0.633335      0.277778     Biso  1.000000 Au
   Au37       1.0     0.633335      0.544443      0.277778     Biso  1.000000 Au
   Au38       1.0     0.633335      0.633335      0.188887     Biso  1.000000 Au
   Au39       1.0     0.722222      0.544443      0.188887     Biso  1.000000 Au
   Au40       1.0     0.722222      0.633335      0.277778     Biso  1.000000 Au
   Au41       1.0     0.811109      0.544443      0.277778     Biso  1.000000 Au
   Au42       1.0     0.277778      0.722222      0.277778     Biso  1.000000 Au
   Au43       1.0     0.366665      0.722222      0.188887     Biso  1.000000 Au
   Au44       1.0     0.366665      0.811109      0.277778     Biso  1.000000 Au
   Au45       1.0     0.455557      0.722222      0.277778     Biso  1.000000 Au
   Au46       1.0     0.544443      0.722222      0.188887     Biso  1.000000 Au
   Au47       1.0     0.544443      0.811109      0.277778     Biso  1.000000 Au
   Au48       1.0     0.633335      0.722222      0.277778     Biso  1.000000 Au
   Au49       1.0     0.366665      0.100000      0.455557     Biso  1.000000 Au
   Au50       1.0     0.455557      0.100000      0.366665     Biso  1.000000 Au
   Au51       1.0     0.544443      0.100000      0.455557     Biso  1.000000 Au
   Au52       1.0     0.188887      0.277778      0.455557     Biso  1.000000 Au
   Au53       1.0     0.277778      0.188887      0.455557     Biso  1.000000 Au
   Au54       1.0     0.277778      0.277778      0.366665     Biso  1.000000 Au
   Au55       1.0     0.366665      0.188887      0.366665     Biso  1.000000 Au
   Au56       1.0     0.366665      0.277778      0.455557     Biso  1.000000 Au
   Au57       1.0     0.455557      0.188887      0.455557     Biso  1.000000 Au
   Au58       1.0     0.455557      0.277778      0.366665     Biso  1.000000 Au
   Au59       1.0     0.544443      0.188887      0.366665     Biso  1.000000 Au
   Au60       1.0     0.544443      0.277778      0.455557     Biso  1.000000 Au
   Au61       1.0     0.633335      0.188887      0.455557     Biso  1.000000 Au
   Au62       1.0     0.633335      0.277778      0.366665     Biso  1.000000 Au
   Au63       1.0     0.722222      0.188887      0.366665     Biso  1.000000 Au
   Au64       1.0     0.722222      0.277778      0.455557     Biso  1.000000 Au
   Au65       1.0     0.811109      0.277778      0.366665     Biso  1.000000 Au
   Au66       1.0     0.100000      0.366665      0.455557     Biso  1.000000 Au
   Au67       1.0     0.100000      0.455557      0.366665     Biso  1.000000 Au
   Au68       1.0     0.188887      0.366665      0.366665     Biso  1.000000 Au
   Au69       1.0     0.188887      0.455557      0.455557     Biso  1.000000 Au
   Au70       1.0     0.277778      0.366665      0.455557     Biso  1.000000 Au
   Au71       1.0     0.277778      0.455557      0.366665     Biso  1.000000 Au
   Au72       1.0     0.366665      0.366665      0.366665     Biso  1.000000 Au
   Au73       1.0     0.366665      0.455557      0.455557     Biso  1.000000 Au
   Au74       1.0     0.455557      0.366665      0.455557     Biso  1.000000 Au
   Au75       1.0     0.455557      0.455557      0.366665     Biso  1.000000 Au
   Au76       1.0     0.544443      0.366665      0.366665     Biso  1.000000 Au
   Au77       1.0     0.544443      0.455557      0.455557     Biso  1.000000 Au
   Au78       1.0     0.633335      0.366665      0.455557     Biso  1.000000 Au
   Au79       1.0     0.633335      0.455557      0.366665     Biso  1.000000 Au
   Au80       1.0     0.722222      0.366665      0.366665     Biso  1.000000 Au
   Au81       1.0     0.722222      0.455557      0.455557     Biso  1.000000 Au
   Au82       1.0     0.811109      0.366665      0.455557     Biso  1.000000 Au
   Au83       1.0     0.811109      0.455557      0.366665     Biso  1.000000 Au
   Au84       1.0     0.900000      0.455557      0.455557     Biso  1.000000 Au
   Au85       1.0     0.100000      0.544443      0.455557     Biso  1.000000 Au
   Au86       1.0     0.188887      0.544443      0.366665     Biso  1.000000 Au
   Au87       1.0     0.188887      0.633335      0.455557     Biso  1.000000 Au
   Au88       1.0     0.277778      0.544443      0.455557     Biso  1.000000 Au
   Au89       1.0     0.277778      0.633335      0.366665     Biso  1.000000 Au
   Au90       1.0     0.366665      0.544443      0.366665     Biso  1.000000 Au
   Au91       1.0     0.366665      0.633335      0.455557     Biso  1.000000 Au
   Au92       1.0     0.455557      0.544443      0.455557     Biso  1.000000 Au
   Au93       1.0     0.455557      0.633335      0.366665     Biso  1.000000 Au
   Au94       1.0     0.544443      0.544443      0.366665     Biso  1.000000 Au
   Au95       1.0     0.544443      0.633335      0.455557     Biso  1.000000 Au
   Au96       1.0     0.633335      0.544443      0.455557     Biso  1.000000 Au
   Au97       1.0     0.633335      0.633335      0.366665     Biso  1.000000 Au
   Au98       1.0     0.722222      0.544443      0.366665     Biso  1.000000 Au
   Au99       1.0     0.722222      0.633335      0.455557     Biso  1.000000 Au
   Au100      1.0     0.811109      0.544443      0.455557     Biso  1.000000 Au
   Au101      1.0     0.811109      0.633335      0.366665     Biso  1.000000 Au
   Au102      1.0     0.900000      0.544443      0.366665     Biso  1.000000 Au
   Au103      1.0     0.900000      0.633335      0.455557     Biso  1.000000 Au
   Au104      1.0     0.188887      0.722222      0.366665     Biso  1.000000 Au
   Au105      1.0     0.277778      0.722222      0.455557     Biso  1.000000 Au
   Au106      1.0     0.277778      0.811109      0.366665     Biso  1.000000 Au
   Au107      1.0     0.366665      0.722222      0.366665     Biso  1.000000 Au
   Au108      1.0     0.366665      0.811109      0.455557     Biso  1.000000 Au
   Au109      1.0     0.455557      0.722222      0.455557     Biso  1.000000 Au
   Au110      1.0     0.455557      0.811109      0.366665     Biso  1.000000 Au
   Au111      1.0     0.544443      0.722222      0.366665     Biso  1.000000 Au
   Au112      1.0     0.544443      0.811109      0.455557     Biso  1.000000 Au
   Au113      1.0     0.633335      0.722222      0.455557     Biso  1.000000 Au
   Au114      1.0     0.633335      0.811109      0.366665     Biso  1.000000 Au
   Au115      1.0     0.722222      0.722222      0.366665     Biso  1.000000 Au
   Au116      1.0     0.722222      0.811109      0.455557     Biso  1.000000 Au
   Au117      1.0     0.811109      0.722222      0.455557     Biso  1.000000 Au
   Au118      1.0     0.455557      0.900000      0.455557     Biso  1.000000 Au
   Au119      1.0     0.544443      0.900000      0.366665     Biso  1.000000 Au
   Au120      1.0     0.633335      0.900000      0.455557     Biso  1.000000 Au
   Au121      1.0     0.455557      0.100000      0.544443     Biso  1.000000 Au
   Au122      1.0     0.544443      0.100000      0.633335     Biso  1.000000 Au
   Au123      1.0     0.633335      0.100000      0.544443     Biso  1.000000 Au
   Au124      1.0     0.188887      0.277778      0.633335     Biso  1.000000 Au
   Au125      1.0     0.277778      0.188887      0.633335     Biso  1.000000 Au
   Au126      1.0     0.277778      0.277778      0.544443     Biso  1.000000 Au
   Au127      1.0     0.366665      0.188887      0.544443     Biso  1.000000 Au
   Au128      1.0     0.366665      0.277778      0.633335     Biso  1.000000 Au
   Au129      1.0     0.455557      0.188887      0.633335     Biso  1.000000 Au
   Au130      1.0     0.455557      0.277778      0.544443     Biso  1.000000 Au
   Au131      1.0     0.544443      0.188887      0.544443     Biso  1.000000 Au
   Au132      1.0     0.544443      0.277778      0.633335     Biso  1.000000 Au
   Au133      1.0     0.633335      0.188887      0.633335     Biso  1.000000 Au
   Au134      1.0     0.633335      0.277778      0.544443     Biso  1.000000 Au
   Au135      1.0     0.722222      0.188887      0.544443     Biso  1.000000 Au
   Au136      1.0     0.722222      0.277778      0.633335     Biso  1.000000 Au
   Au137      1.0     0.811109      0.277778      0.544443     Biso  1.000000 Au
   Au138      1.0     0.100000      0.455557      0.544443     Biso  1.000000 Au
   Au139      1.0     0.188887      0.366665      0.544443     Biso  1.000000 Au
   Au140      1.0     0.188887      0.455557      0.633335     Biso  1.000000 Au
   Au141      1.0     0.277778      0.366665      0.633335     Biso  1.000000 Au
   Au142      1.0     0.277778      0.455557      0.544443     Biso  1.000000 Au
   Au143      1.0     0.366665      0.366665      0.544443     Biso  1.000000 Au
   Au144      1.0     0.366665      0.455557      0.633335     Biso  1.000000 Au
   Au145      1.0     0.455557      0.366665      0.633335     Biso  1.000000 Au
   Au146      1.0     0.455557      0.455557      0.544443     Biso  1.000000 Au
   Au147      1.0     0.544443      0.366665      0.544443     Biso  1.000000 Au
   Au148      1.0     0.544443      0.455557      0.633335     Biso  1.000000 Au
   Au149      1.0     0.633335      0.366665      0.633335     Biso  1.000000 Au
   Au150      1.0     0.633335      0.455557      0.544443     Biso  1.000000 Au
   Au151      1.0     0.722222      0.366665      0.544443     Biso  1.000000 Au
   Au152      1.0     0.722222      0.455557      0.633335     Biso  1.000000 Au
   Au153      1.0     0.811109      0.366665      0.633335     Biso  1.000000 Au
   Au154      1.0     0.811109      0.455557      0.544443     Biso  1.000000 Au
   Au155      1.0     0.900000      0.366665      0.544443     Biso  1.000000 Au
   Au156      1.0     0.900000      0.455557      0.633335     Biso  1.000000 Au
   Au157      1.0     0.100000      0.544443      0.633335     Biso  1.000000 Au
   Au158      1.0     0.100000      0.633335      0.544443     Biso  1.000000 Au
   Au159      1.0     0.188887      0.544443      0.544443     Biso  1.000000 Au
   Au160      1.0     0.188887      0.633335      0.633335     Biso  1.000000 Au
   Au161      1.0     0.277778      0.544443      0.633335     Biso  1.000000 Au
   Au162      1.0     0.277778      0.633335      0.544443     Biso  1.000000 Au
   Au163      1.0     0.366665      0.544443      0.544443     Biso  1.000000 Au
   Au164      1.0     0.366665      0.633335      0.633335     Biso  1.000000 Au
   Au165      1.0     0.455557      0.544443      0.633335     Biso  1.000000 Au
   Au166      1.0     0.455557      0.633335      0.544443     Biso  1.000000 Au
   Au167      1.0     0.544443      0.544443      0.544443     Biso  1.000000 Au
   Au168      1.0     0.544443      0.633335      0.633335     Biso  1.000000 Au
   Au169      1.0     0.633335      0.544443      0.633335     Biso  1.000000 Au
   Au170      1.0     0.633335      0.633335      0.544443     Biso  1.000000 Au
   Au171      1.0     0.722222      0.544443      0.544443     Biso  1.000000 Au
   Au172      1.0     0.722222      0.633335      0.633335     Biso  1.000000 Au
   Au173      1.0     0.811109      0.544443      0.633335     Biso  1.000000 Au
   Au174      1.0     0.811109      0.633335      0.544443     Biso  1.000000 Au
   Au175      1.0     0.900000      0.544443      0.544443     Biso  1.000000 Au
   Au176      1.0     0.188887      0.722222      0.544443     Biso  1.000000 Au
   Au177      1.0     0.277778      0.722222      0.633335     Biso  1.000000 Au
   Au178      1.0     0.277778      0.811109      0.544443     Biso  1.000000 Au
   Au179      1.0     0.366665      0.722222      0.544443     Biso  1.000000 Au
   Au180      1.0     0.366665      0.811109      0.633335     Biso  1.000000 Au
   Au181      1.0     0.455557      0.722222      0.633335     Biso  1.000000 Au
   Au182      1.0     0.455557      0.811109      0.544443     Biso  1.000000 Au
   Au183      1.0     0.544443      0.722222      0.544443     Biso  1.000000 Au
   Au184      1.0     0.544443      0.811109      0.633335     Biso  1.000000 Au
   Au185      1.0     0.633335      0.722222      0.633335     Biso  1.000000 Au
   Au186      1.0     0.633335      0.811109      0.544443     Biso  1.000000 Au
   Au187      1.0     0.722222      0.722222      0.544443     Biso  1.000000 Au
   Au188      1.0     0.722222      0.811109      0.633335     Biso  1.000000 Au
   Au189      1.0     0.811109      0.722222      0.633335     Biso  1.000000 Au
   Au190      1.0     0.366665      0.900000      0.544443     Biso  1.000000 Au
   Au191      1.0     0.455557      0.900000      0.633335     Biso  1.000000 Au
   Au192      1.0     0.544443      0.900000      0.544443     Biso  1.000000 Au
   Au193      1.0     0.277778      0.277778      0.722222     Biso  1.000000 Au
   Au194      1.0     0.366665      0.188887      0.722222     Biso  1.000000 Au
   Au195      1.0     0.366665      0.277778      0.811109     Biso  1.000000 Au
   Au196      1.0     0.455557      0.277778      0.722222     Biso  1.000000 Au
   Au197      1.0     0.544443      0.188887      0.722222     Biso  1.000000 Au
   Au198      1.0     0.544443      0.277778      0.811109     Biso  1.000000 Au
   Au199      1.0     0.633335      0.277778      0.722222     Biso  1.000000 Au
   Au200      1.0     0.188887      0.366665      0.722222     Biso  1.000000 Au
   Au201      1.0     0.277778      0.366665      0.811109     Biso  1.000000 Au
   Au202      1.0     0.277778      0.455557      0.722222     Biso  1.000000 Au
   Au203      1.0     0.366665      0.366665      0.722222     Biso  1.000000 Au
   Au204      1.0     0.366665      0.455557      0.811109     Biso  1.000000 Au
   Au205      1.0     0.455557      0.366665      0.811109     Biso  1.000000 Au
   Au206      1.0     0.455557      0.455557      0.722222     Biso  1.000000 Au
   Au207      1.0     0.544443      0.366665      0.722222     Biso  1.000000 Au
   Au208      1.0     0.544443      0.455557      0.811109     Biso  1.000000 Au
   Au209      1.0     0.633335      0.366665      0.811109     Biso  1.000000 Au
   Au210      1.0     0.633335      0.455557      0.722222     Biso  1.000000 Au
   Au211      1.0     0.722222      0.366665      0.722222     Biso  1.000000 Au
   Au212      1.0     0.722222      0.455557      0.811109     Biso  1.000000 Au
   Au213      1.0     0.811109      0.455557      0.722222     Biso  1.000000 Au
   Au214      1.0     0.188887      0.544443      0.722222     Biso  1.000000 Au
   Au215      1.0     0.277778      0.544443      0.811109     Biso  1.000000 Au
   Au216      1.0     0.277778      0.633335      0.722222     Biso  1.000000 Au
   Au217      1.0     0.366665      0.544443      0.722222     Biso  1.000000 Au
   Au218      1.0     0.366665      0.633335      0.811109     Biso  1.000000 Au
   Au219      1.0     0.455557      0.544443      0.811109     Biso  1.000000 Au
   Au220      1.0     0.455557      0.633335      0.722222     Biso  1.000000 Au
   Au221      1.0     0.544443      0.544443      0.722222     Biso  1.000000 Au
   Au222      1.0     0.544443      0.633335      0.811109     Biso  1.000000 Au
   Au223      1.0     0.633335      0.544443      0.811109     Biso  1.000000 Au
   Au224      1.0     0.633335      0.633335      0.722222     Biso  1.000000 Au
   Au225      1.0     0.722222      0.544443      0.722222     Biso  1.000000 Au
   Au226      1.0     0.722222      0.633335      0.811109     Biso  1.000000 Au
   Au227      1.0     0.811109      0.633335      0.722222     Biso  1.000000 Au
   Au228      1.0     0.366665      0.722222      0.722222     Biso  1.000000 Au
   Au229      1.0     0.455557      0.722222      0.811109     Biso  1.000000 Au
   Au230      1.0     0.455557      0.811109      0.722222     Biso  1.000000 Au
   Au231      1.0     0.544443      0.722222      0.722222     Biso  1.000000 Au
   Au232      1.0     0.633335      0.722222      0.811109     Biso  1.000000 Au
   Au233      1.0     0.633335      0.811109      0.722222     Biso  1.000000 Au
   Au234      1.0     0.722222      0.722222      0.722222     Biso  1.000000 Au
   Au235      1.0     0.455557      0.455557      0.900000     Biso  1.000000 Au
   Au236      1.0     0.544443      0.366665      0.900000     Biso  1.000000 Au
   Au237      1.0     0.633335      0.455557      0.900000     Biso  1.000000 Au
   Au238      1.0     0.366665      0.544443      0.900000     Biso  1.000000 Au
   Au239      1.0     0.455557      0.633335      0.900000     Biso  1.000000 Au
   Au240      1.0     0.544443      0.544443      0.900000     Biso  1.000000 Au
